4
Coordinates from ORCA-job co3 E -263.926088517589
  O           1.11932860106953     -0.00000005015624      0.63349680674803
  O          -1.11932858724567     -0.00000005015629      0.63349672199040
  O          -0.00000005937803     -0.00000004010368     -1.30064569059429
  C           0.00000004555417      0.00000014041620     -0.00943147814414
