8
Coordinates from ORCA-job co3h_1wat E -340.816562268455
  O           0.96265899689794      0.01095841168391      0.68832660275241
  O          -1.24399998057252     -0.00284033896495      0.75890178572943
  O          -0.20381838893632     -0.00123659328550     -1.23203374574550
  C          -0.08544770328070      0.00256475983741      0.00579520706972
  H           2.37705212223470      0.01170515841870     -0.27819923551848
  H          -1.98331248309467     -0.00867812114867      0.14089062548880
  O           3.19949342362160      0.01753224902153     -0.82156234996398
  H           3.91061443312997     -0.10839816556242     -0.18946309981239
