5
Coordinates from ORCA-job co3h E -264.412934459115
  O           1.12789429529119      0.00001162784893      0.70530727656156
  O          -1.08596738141705     -0.00000934997414      0.64441322470422
  O           0.07545511592733     -0.00000723773223     -1.28007115594640
  C          -0.04557579349809      0.00002120171848     -0.03802863665773
  H           1.85866065369662     -0.00001624186106      0.07760999133835
